xflr5 v6.40

 Calculated polar for: NACA 4412

 1 1 Reynolds number fixed          Mach number fixed         

 xtrf =   1.000 (top)        1.000 (bottom)
 Mach =   0.100     Re =     9.000 e 6     Ncrit =   9.000

  alpha     CL        CD       CDp       Cm    Top Xtr Bot Xtr   Cpmin    Chinge    XCp    
 ------- -------- --------- --------- -------- ------- ------- -------- --------- ---------
  -5.000  -0.0934   0.00583   0.00134  -0.1032  0.6316  0.0261  -2.6701   0.0000  -0.8837
  -4.500  -0.0354   0.00577   0.00122  -0.1034  0.6074  0.0269  -2.3296   0.0000  -2.7402
  -4.000   0.0226   0.00566   0.00109  -0.1037  0.5840  0.0342  -2.0077   0.0000   4.9237
  -3.500   0.0807   0.00562   0.00100  -0.1039  0.5606  0.0376  -1.7004   0.0000   1.5582
  -3.000   0.1385   0.00557   0.00091  -0.1041  0.5349  0.0466  -1.4248   0.0000   1.0116
  -2.500   0.1963   0.00553   0.00086  -0.1043  0.5126  0.0579  -1.1944   0.0000   0.7869
  -2.000   0.2545   0.00548   0.00080  -0.1047  0.4974  0.0697  -0.9743   0.0000   0.6640
  -1.500   0.3125   0.00544   0.00077  -0.1050  0.4780  0.0857  -0.7761   0.0000   0.5870
  -1.000   0.3706   0.00541   0.00075  -0.1053  0.4659  0.1025  -0.6996   0.0000   0.5341
  -0.500   0.4288   0.00539   0.00075  -0.1056  0.4499  0.1250  -0.7416   0.0000   0.4955
   0.000   0.4871   0.00533   0.00075  -0.1060  0.4425  0.1542  -0.7868   0.0000   0.4661
   0.500   0.5448   0.00533   0.00078  -0.1063  0.4267  0.1870  -0.8323   0.0000   0.4430
   1.000   0.6033   0.00528   0.00081  -0.1067  0.4207  0.2203  -0.8815   0.0000   0.4242
   1.500   0.6609   0.00529   0.00087  -0.1070  0.4091  0.2635  -0.9322   0.0000   0.4087
   2.000   0.7185   0.00530   0.00094  -0.1073  0.3936  0.3120  -0.9854   0.0000   0.3957
   2.500   0.7751   0.00537   0.00105  -0.1075  0.3725  0.3741  -1.0418   0.0000   0.3845
   3.000   0.8309   0.00535   0.00120  -0.1076  0.3474  0.5051  -1.1018   0.0000   0.3748
   3.500   0.8859   0.00543   0.00139  -0.1075  0.3146  0.6198  -1.1676   0.0000   0.3662
   4.000   0.9397   0.00560   0.00165  -0.1073  0.2791  0.7388  -1.2423   0.0000   0.3584
   4.500   0.9922   0.00575   0.00193  -0.1067  0.2406  0.8768  -1.3623   0.0000   0.3512
   5.000   1.0432   0.00607   0.00227  -0.1057  0.1958  1.0000  -1.5286   0.0000   0.3445
   5.500   1.0937   0.00673   0.00267  -0.1048  0.1472  1.0000  -1.7295   0.0000   0.3384
   6.000   1.1458   0.00723   0.00302  -0.1042  0.1158  1.0000  -1.9577   0.0000   0.3329
   6.500   1.1964   0.00784   0.00344  -0.1033  0.0834  1.0000  -2.2137   0.0000   0.3276
   7.000   1.2469   0.00841   0.00387  -0.1024  0.0587  1.0000  -2.4800   0.0000   0.3228
   7.500   1.2983   0.00889   0.00426  -0.1017  0.0462  1.0000  -2.7901   0.0000   0.3183
   8.000   1.3489   0.00938   0.00468  -0.1009  0.0360  1.0000  -3.1315   0.0000   0.3140
   8.500   1.3984   0.00991   0.00513  -0.0999  0.0271  1.0000  -3.4831   0.0000   0.3099
   9.000   1.4477   0.01042   0.00559  -0.0988  0.0234  1.0000  -3.8492   0.0000   0.3060
   9.500   1.4963   0.01092   0.00606  -0.0977  0.0188  1.0000  -4.2249   0.0000   0.3023
  10.000   1.5443   0.01141   0.00654  -0.0964  0.0175  1.0000  -4.6149   0.0000   0.2986
  10.500   1.5888   0.01206   0.00714  -0.0946  0.0142  1.0000  -5.0463   0.0000   0.2949
  11.000   1.6332   0.01263   0.00770  -0.0928  0.0121  1.0000  -5.5157   0.0000   0.2913
  11.500   1.6742   0.01319   0.00827  -0.0903  0.0119  1.0000  -5.9881   0.0000   0.2876
  12.000   1.7097   0.01386   0.00896  -0.0868  0.0112  1.0000  -6.4500   0.0000   0.2835
  12.500   1.7410   0.01478   0.00986  -0.0829  0.0096  1.0000  -6.9032   0.0000   0.2795
  13.000   1.7712   0.01581   0.01090  -0.0790  0.0071  1.0000  -7.3577   0.0000   0.2755
  14.000   1.8327   0.01798   0.01314  -0.0723  0.0068  1.0000  -8.3230   0.0000   0.2684
  14.500   1.8613   0.01931   0.01450  -0.0690  0.0068  1.0000  -8.8130   0.0000   0.2650
  15.000   1.8883   0.02082   0.01606  -0.0658  0.0068  1.0000  -9.3056   0.0000   0.2618
  15.500   1.9124   0.02256   0.01785  -0.0626  0.0067  1.0000  -9.7917   0.0000   0.2586
  16.000   1.9344   0.02460   0.01995  -0.0596  0.0065  1.0000  -10.2752   0.0000   0.2555
  16.500   1.9531   0.02702   0.02243  -0.0566  0.0063  1.0000  -10.7449   0.0000   0.2525
  17.000   1.9657   0.02999   0.02546  -0.0536  0.0060  1.0000  -11.1808   0.0000   0.2496
  17.500   1.9728   0.03375   0.02929  -0.0508  0.0054  1.0000  -11.5814   0.0000   0.2469
  18.000   1.9768   0.03810   0.03371  -0.0485  0.0048  1.0000  -11.9601   0.0000   0.2444
  18.500   1.9787   0.04286   0.03854  -0.0467  0.0041  1.0000  -12.3199   0.0000   0.2422
  19.000   1.9752   0.04840   0.04419  -0.0452  0.0031  1.0000  -12.6133   0.0000   0.2402
  19.500   1.9716   0.05434   0.05025  -0.0445  0.0031  1.0000  -12.9356   0.0000   0.2385
  20.000   1.9638   0.06099   0.05701  -0.0443  0.0031  1.0000  -13.2228   0.0000   0.2371
  20.500   1.9530   0.06797   0.06412  -0.0444  0.0031  1.0000  -13.4832   0.0000   0.2358
  21.000   1.9393   0.07553   0.07181  -0.0449  0.0031  1.0000  -13.7168   0.0000   0.2348
  21.500   1.9229   0.08365   0.08006  -0.0460  0.0030  1.0000  -13.9617   0.0000   0.2341
  22.000   1.9036   0.09228   0.08883  -0.0476  0.0030  1.0000  -14.1727   0.0000   0.2337
  22.500   1.8808   0.10131   0.09799  -0.0496  0.0030  1.0000  -14.3414   0.0000   0.2336
  23.000   1.8565   0.11081   0.10764  -0.0522  0.0030  1.0000  -14.4828   0.0000   0.2338
  23.500   1.8317   0.12064   0.11761  -0.0555  0.0030  1.0000  -14.6030   0.0000   0.2345
  24.000   1.8066   0.13070   0.12781  -0.0595  0.0030  1.0000  -14.7029   0.0000   0.2355
  24.500   1.7807   0.14097   0.13822  -0.0641  0.0030  1.0000  -14.7739   0.0000   0.2369
  25.000   1.7536   0.15146   0.14886  -0.0693  0.0030  1.0000  -14.8089   0.0000   0.2388


