xflr5 v6.40

 Calculated polar for: NACA 4412

 1 1 Reynolds number fixed          Mach number fixed         

 xtrf =   1.000 (top)        1.000 (bottom)
 Mach =   0.100     Re =     3.000 e 6     Ncrit =   9.000

  alpha     CL        CD       CDp       Cm    Top Xtr Bot Xtr   Cpmin    Chinge    XCp    
 ------- -------- --------- --------- -------- ------- ------- -------- --------- ---------
  -5.000  -0.0886   0.00673   0.00181  -0.1039  0.7529  0.0325  -2.6398   0.0000  -0.9528
  -4.500  -0.0312   0.00658   0.00162  -0.1040  0.7314  0.0362  -2.3050   0.0000  -3.1591
  -4.000   0.0258   0.00644   0.00143  -0.1040  0.7054  0.0445  -1.9889   0.0000   4.3502
  -3.500   0.0830   0.00635   0.00128  -0.1041  0.6797  0.0529  -1.6873   0.0000   1.5235
  -3.000   0.1400   0.00626   0.00115  -0.1041  0.6527  0.0655  -1.4171   0.0000   1.0032
  -2.500   0.1970   0.00621   0.00106  -0.1042  0.6242  0.0803  -1.1894   0.0000   0.7842
  -2.000   0.2541   0.00615   0.00099  -0.1043  0.5997  0.0998  -0.9725   0.0000   0.6634
  -1.500   0.3111   0.00612   0.00095  -0.1044  0.5750  0.1234  -0.7771   0.0000   0.5869
  -1.000   0.3684   0.00606   0.00092  -0.1046  0.5536  0.1547  -0.6986   0.0000   0.5341
  -0.500   0.4254   0.00604   0.00093  -0.1048  0.5309  0.1901  -0.7399   0.0000   0.4955
   0.000   0.4821   0.00605   0.00096  -0.1049  0.5076  0.2339  -0.7841   0.0000   0.4661
   0.500   0.5394   0.00599   0.00100  -0.1051  0.4943  0.2862  -0.8293   0.0000   0.4428
   1.000   0.5962   0.00595   0.00107  -0.1053  0.4770  0.3553  -0.8774   0.0000   0.4240
   1.500   0.6526   0.00569   0.00116  -0.1055  0.4651  0.5183  -0.9271   0.0000   0.4085
   2.000   0.7082   0.00547   0.00129  -0.1056  0.4495  0.6903  -0.9788   0.0000   0.3954
   2.500   0.7617   0.00515   0.00145  -0.1050  0.4407  0.8819  -1.0334   0.0000   0.3836
   3.000   0.8224   0.00518   0.00159  -0.1058  0.4225  0.9996  -1.0966   0.0000   0.3739
   3.500   0.8791   0.00531   0.00169  -0.1059  0.4137  1.0000  -1.1633   0.0000   0.3652
   4.000   0.9340   0.00557   0.00186  -0.1057  0.3919  1.0000  -1.2387   0.0000   0.3573
   4.500   0.9881   0.00589   0.00205  -0.1053  0.3639  1.0000  -1.3579   0.0000   0.3502
   5.000   1.0412   0.00629   0.00229  -0.1048  0.3310  1.0000  -1.5268   0.0000   0.3437
   5.500   1.0925   0.00682   0.00262  -0.1040  0.2896  1.0000  -1.7290   0.0000   0.3377
   6.000   1.1429   0.00741   0.00302  -0.1031  0.2495  1.0000  -1.9520   0.0000   0.3321
   6.500   1.1900   0.00824   0.00356  -0.1017  0.1931  1.0000  -2.1993   0.0000   0.3267
   7.000   1.2360   0.00911   0.00416  -0.1001  0.1447  1.0000  -2.4533   0.0000   0.3216
   7.500   1.2809   0.01003   0.00484  -0.0983  0.1007  1.0000  -2.7335   0.0000   0.3167
   8.000   1.3257   0.01088   0.00550  -0.0965  0.0703  1.0000  -3.0527   0.0000   0.3120
   8.500   1.3709   0.01164   0.00615  -0.0948  0.0528  1.0000  -3.3854   0.0000   0.3077
   9.000   1.4155   0.01236   0.00680  -0.0929  0.0411  1.0000  -3.7291   0.0000   0.3035
   9.500   1.4595   0.01305   0.00746  -0.0910  0.0334  1.0000  -4.0817   0.0000   0.2994
  10.000   1.4997   0.01382   0.00819  -0.0885  0.0265  1.0000  -4.4338   0.0000   0.2952
  10.500   1.5349   0.01462   0.00897  -0.0850  0.0228  1.0000  -4.7865   0.0000   0.2908
  11.000   1.5688   0.01551   0.00987  -0.0814  0.0188  1.0000  -5.1940   0.0000   0.2865
  11.500   1.6039   0.01638   0.01079  -0.0783  0.0177  1.0000  -5.6227   0.0000   0.2826
  12.000   1.6338   0.01756   0.01197  -0.0747  0.0155  1.0000  -6.0388   0.0000   0.2786
  12.500   1.6601   0.01901   0.01346  -0.0707  0.0126  1.0000  -6.4415   0.0000   0.2746
  13.500   1.7174   0.02189   0.01648  -0.0645  0.0118  1.0000  -7.3238   0.0000   0.2676
  14.000   1.7413   0.02374   0.01839  -0.0613  0.0111  1.0000  -7.7548   0.0000   0.2643
  14.500   1.7598   0.02614   0.02084  -0.0580  0.0100  1.0000  -8.1597   0.0000   0.2610
  15.000   1.7732   0.02913   0.02391  -0.0548  0.0088  1.0000  -8.5334   0.0000   0.2578
  15.500   1.7824   0.03262   0.02751  -0.0517  0.0079  1.0000  -8.8794   0.0000   0.2548
  16.000   1.7887   0.03669   0.03174  -0.0492  0.0074  1.0000  -9.2084   0.0000   0.2522
  16.500   1.7880   0.04184   0.03708  -0.0471  0.0071  1.0000  -9.4894   0.0000   0.2498
  17.000   1.7852   0.04740   0.04281  -0.0456  0.0069  1.0000  -9.7628   0.0000   0.2478
  17.500   1.7891   0.05256   0.04809  -0.0449  0.0069  1.0000  -10.1026   0.0000   0.2461
  18.000   1.7919   0.05805   0.05369  -0.0445  0.0068  1.0000  -10.4396   0.0000   0.2446
  18.500   1.7927   0.06392   0.05966  -0.0446  0.0068  1.0000  -10.7664   0.0000   0.2433
  19.000   1.7888   0.07036   0.06622  -0.0449  0.0067  1.0000  -11.0571   0.0000   0.2422
  19.500   1.7806   0.07760   0.07360  -0.0457  0.0067  1.0000  -11.3097   0.0000   0.2415
  20.000   1.7682   0.08558   0.08172  -0.0469  0.0066  1.0000  -11.5204   0.0000   0.2410
  20.500   1.7535   0.09398   0.09027  -0.0487  0.0064  1.0000  -11.7045   0.0000   0.2408
  21.000   1.7374   0.10247   0.09890  -0.0506  0.0063  1.0000  -11.8700   0.0000   0.2408
  21.500   1.7197   0.11145   0.10802  -0.0531  0.0060  1.0000  -12.0088   0.0000   0.2412
  22.000   1.6986   0.12115   0.11787  -0.0564  0.0058  1.0000  -12.1023   0.0000   0.2420
  22.500   1.6746   0.13155   0.12841  -0.0605  0.0055  1.0000  -12.1469   0.0000   0.2435
  23.000   1.6451   0.14299   0.14001  -0.0657  0.0052  1.0000  -12.1353   0.0000   0.2459
  23.500   1.6158   0.15462   0.15180  -0.0716  0.0049  1.0000  -12.1055   0.0000   0.2487
  24.000   1.5871   0.16672   0.16407  -0.0783  0.0046  1.0000  -12.0436   0.0000   0.2523
  24.500   1.5580   0.17941   0.17693  -0.0860  0.0043  1.0000  -11.9341   0.0000   0.2567
  25.000   1.5232   0.19392   0.19166  -0.0954  0.0042  1.0000  -11.6953   0.0000   0.2627


