xflr5 v6.40

 Calculated polar for: NACA 0012

 1 1 Reynolds number fixed          Mach number fixed         

 xtrf =   1.000 (top)        1.000 (bottom)
 Mach =   0.700     Re =     3.000 e 6     Ncrit =   9.000

  alpha     CL        CD       CDp       Cm    Top Xtr Bot Xtr   Cpmin    Chinge    XCp    
 ------- -------- --------- --------- -------- ------- ------- -------- --------- ---------
  -4.000  -0.6620   0.00839   0.00402  -0.0186  0.7927  0.0579  -2.6361   0.0000   0.2155
  -3.000  -0.4938   0.00743   0.00275  -0.0112  0.6937  0.1163  -1.7950   0.0000   0.2217
  -2.500  -0.4110   0.00704   0.00230  -0.0084  0.6450  0.1592  -1.4868   0.0000   0.2241
  -2.000  -0.3294   0.00670   0.00194  -0.0061  0.5944  0.2100  -1.2363   0.0000   0.2265
  -1.500  -0.2471   0.00644   0.00168  -0.0042  0.5488  0.2610  -1.0328   0.0000   0.2280
  -1.000  -0.1648   0.00626   0.00151  -0.0026  0.5022  0.3119  -0.8689   0.0000   0.2292
  -0.500  -0.0826   0.00617   0.00141  -0.0012  0.4540  0.3605  -0.7385   0.0000   0.2303
   0.000  -0.0000   0.00613   0.00138  -0.0000  0.4087  0.4087  -0.6307   0.0000  -0.0543
   0.500   0.0826   0.00617   0.00141   0.0012  0.3605  0.4540  -0.7385   0.0000   0.2303
   1.000   0.1648   0.00626   0.00151   0.0026  0.3119  0.5022  -0.8689   0.0000   0.2292
   1.500   0.2471   0.00644   0.00168   0.0042  0.2610  0.5488  -1.0329   0.0000   0.2280
   2.000   0.3295   0.00670   0.00194   0.0061  0.2100  0.5944  -1.2363   0.0000   0.2265
   2.500   0.4111   0.00704   0.00230   0.0084  0.1591  0.6450  -1.4869   0.0000   0.2241
   3.000   0.4939   0.00743   0.00275   0.0112  0.1163  0.6938  -1.7951   0.0000   0.2217
   3.500   0.5777   0.00788   0.00332   0.0145  0.0830  0.7417  -2.1693   0.0000   0.2189
   4.000   0.6621   0.00839   0.00402   0.0186  0.0579  0.7927  -2.6365   0.0000   0.2155
   4.500   0.7485   0.00896   0.00487   0.0237  0.0433  0.8402  -3.2084   0.0000   0.2114
   5.000   0.8303   0.01002   0.00635   0.0311  0.0357  0.8838  -3.8138   0.0000   0.2051
   5.500   0.8818   0.01252   0.00954   0.0428  0.0347  0.9289  -4.1732   0.0000   0.1933
   6.000   0.8839   0.01710   0.01487   0.0561  0.0331  0.9810  -4.3105   0.0000   0.1776
   6.500   0.8655   0.02478   0.02313   0.0591  0.0308  1.0000  -4.3664   0.0000   0.1719
   7.000   0.8315   0.03440   0.03305   0.0552  0.0289  1.0000  -4.3264   0.0000   0.1730
   7.500   0.7988   0.04621   0.04504   0.0457  0.0274  1.0000  -4.2685   0.0000   0.1814
   8.000   0.7638   0.05814   0.05701   0.0375  0.0255  1.0000  -4.1307   0.0000   0.1889
   8.500   0.7311   0.06966   0.06855   0.0306  0.0236  1.0000  -3.9551   0.0000   0.1956
   9.000   0.7052   0.08092   0.07979   0.0239  0.0220  1.0000  -3.7849   0.0000   0.2031
   9.500   0.6864   0.09192   0.09078   0.0175  0.0208  1.0000  -3.6268   0.0000   0.2109
  10.000   0.6760   0.10270   0.10155   0.0115  0.0196  1.0000  -3.5114   0.0000   0.2190


